1S22
                    3D
 Structure written by MMmdl.
 50 53  0  0  1  0            999 V2000
   -8.3890   -1.5220   13.6770 O   0  0  0  0  0  0
   -7.2000   -1.2820   13.6860 C   0  0  3  0  0  0
   -6.8310   -0.0690   14.2390 C   0  0  0  0  0  0
   -7.6910    0.6420   15.0680 C   0  0  0  0  0  0
   -7.9580    1.9740   14.9640 C   0  0  0  0  0  0
   -8.7460    2.9070   15.7250 C   0  0  2  0  0  0
  -10.0020    3.1010   15.0610 O   0  0  0  0  0  0
   -8.0030    4.1870   15.7740 C   0  0  0  0  0  0
   -8.7310    5.3200   16.4070 C   0  0  3  0  0  0
   -9.3550    5.1370   17.4220 O   0  0  0  0  0  0
   -8.5490    6.4220   15.6790 O   0  0  0  0  0  0
   -6.2760   -2.2890   13.0780 C   0  0  0  0  0  0
   -6.2450   -2.5300   11.5960 C   0  0  2  0  0  0
   -5.6570   -3.8400   11.1700 C   0  0  0  0  0  0
   -5.9070   -1.3190   10.8370 C   0  0  2  0  0  0
   -4.7200   -1.1580   10.1270 C   0  0  0  0  0  0
   -4.6310    0.0560    9.5480 O   0  0  0  0  0  0
   -6.5490   -0.0930   10.6900 N   0  0  0  0  0  0
   -5.8340    0.6990    9.9240 C   0  0  1  0  0  0
   -5.9680    2.0260    9.4560 C   0  0  2  0  0  0
   -5.2850    2.9310    8.6620 C   0  0  0  0  0  0
   -5.8350    4.1840    8.6040 O   0  0  0  0  0  0
   -7.0290    2.8100    9.9260 N   0  0  0  0  0  0
   -6.9700    4.0140    9.4270 C   0  0  1  0  0  0
   -7.7450    5.1800    9.6190 C   0  0  1  0  0  0
   -8.7200    5.2250   10.6210 N   0  0  0  0  0  0
   -7.5450    6.3390    8.9480 C   0  0  0  0  0  0
   -8.4190    7.2310    9.4830 O   0  0  0  0  0  0
   -9.0750    6.4730   10.4320 C   0  0  2  0  0  0
  -10.0950    6.9570   11.3280 C   0  0  0  0  0  0
  -10.6700    6.3240   12.3330 C   0  0  0  0  0  0
  -11.6720    6.9590   13.2250 C   0  0  0  0  0  0
  -11.2850    7.0080   14.7230 C   0  0  2  0  0  0
  -12.3290    7.0740   15.6620 O   0  0  0  0  0  0
  -13.0700    5.8800   15.9030 C   0  0  0  0  0  0
  -10.1580    8.0080   14.9680 C   0  0  1  0  0  0
  -10.7970    9.3660   15.1620 C   0  0  0  0  0  0
   -9.1460    7.6560   16.0810 C   0  0  2  0  0  0
   -8.2160    8.7680   16.4810 C   0  0  0  0  0  0
   -7.1090    8.2400   17.4120 C   0  0  2  0  0  0
   -7.8010    7.9270   18.6380 O   0  0  0  0  0  0
   -7.1990    6.9680   19.5110 C   0  0  0  0  0  0
   -5.9280    9.2020   17.4940 C   0  0  1  0  0  0
   -5.0560    9.1350   16.2590 C   0  0  0  0  0  0
   -6.2170   10.5970   17.9680 C   0  0  0  0  0  0
   -5.2010   11.5680   18.5430 C   0  0  0  0  0  0
   -5.3700   13.0530   18.3320 C   0  0  2  0  0  0
   -6.1580   13.5140   17.4690 O   0  0  0  0  0  0
   -4.3650   13.7680   19.2380 C   0  0  0  0  0  0
   -4.5690   13.4530   20.7180 C   0  0  0  0  0  0
  1  2  1  0  0  0
  2  3  1  0  0  0
  2 12  1  0  0  0
  3  4  1  0  0  0
  4  5  1  0  0  0
  5  6  1  0  0  0
  6  7  1  0  0  0
  6  8  1  0  0  0
  8  9  1  0  0  0
  9 10  1  0  0  0
  9 11  1  0  0  0
 11 38  1  0  0  0
 12 13  1  0  0  0
 13 14  1  0  0  0
 13 15  1  0  0  0
 15 16  1  0  0  0
 15 18  1  0  0  0
 16 17  1  0  0  0
 17 19  1  0  0  0
 18 19  1  0  0  0
 19 20  1  0  0  0
 20 21  1  0  0  0
 20 23  1  0  0  0
 21 22  1  0  0  0
 22 24  1  0  0  0
 23 24  1  0  0  0
 24 25  1  0  0  0
 25 26  1  0  0  0
 25 27  1  0  0  0
 26 29  1  0  0  0
 27 28  1  0  0  0
 28 29  1  0  0  0
 29 30  1  0  0  0
 30 31  1  0  0  0
 31 32  1  0  0  0
 32 33  1  0  0  0
 33 34  1  0  0  0
 33 36  1  0  0  0
 34 35  1  0  0  0
 36 37  1  0  0  0
 36 38  1  0  0  0
 38 39  1  0  0  0
 39 40  1  0  0  0
 40 41  1  0  0  0
 40 43  1  0  0  0
 41 42  1  0  0  0
 43 44  1  0  0  0
 43 45  1  0  0  0
 45 46  1  0  0  0
 46 47  1  0  0  0
 47 48  1  0  0  0
 47 49  1  0  0  0
 49 50  1  0  0  0
M  END
