1FKD
                    3D
 Structure written by MMmdl.
 57 60  0  0  1  0            999 V2000
   19.9210   29.5200    5.9920 C   0  0  2  0  0  0
   18.5650   28.8730    5.8180 C   0  0  2  0  0  0
   17.8950   28.8090    7.2280 C   0  0  0  0  0  0
   18.4230   27.6210    8.0460 C   0  0  0  0  0  0
   18.3000   26.2690    7.3590 C   0  0  0  0  0  0
   18.9900   26.3600    6.0070 C   0  0  0  0  0  0
   17.9750   27.4400    3.9510 C   0  0  2  0  0  0
   17.7770   26.1320    3.2720 C   0  0  1  0  0  0
   18.9330   25.6320    2.3120 C   0  0  1  0  0  0
   19.6310   26.7810    1.6470 C   0  0  1  0  0  0
   20.9630   26.3060    1.0580 C   0  0  0  0  0  0
   21.8580   25.5730    2.1480 C   0  0  1  0  0  0
   21.0370   24.4440    2.8450 C   0  0  1  0  0  0
   21.5900   23.6560    4.0350 C   0  0  2  0  0  0
   22.4860   24.4840    4.9670 C   0  0  0  0  0  0
   22.9020   23.7580    6.2770 C   0  0  2  0  0  0
   24.3240   23.0780    6.0170 C   0  0  1  0  0  0
   25.3890   24.1400    6.1990 C   0  0  1  0  0  0
   25.9250   24.7060    5.0940 C   0  0  0  0  0  0
   26.9140   25.8260    5.1440 C   0  0  2  0  0  0
   26.1710   27.1240    4.8530 C   0  0  3  0  0  0
   25.8230   27.9620    6.0620 C   0  0  0  0  0  0
   24.7190   28.9860    5.7540 C   0  0  1  0  0  0
   23.3280   28.3400    5.7220 C   0  0  2  0  0  0
   22.2630   29.5100    5.4240 C   0  0  1  0  0  0
   22.5380   30.2840    4.1500 C   0  0  1  0  0  0
   22.8940   31.5690    4.3810 C   0  0  0  0  0  0
   23.3340   32.5040    3.2830 C   0  0  1  0  0  0
   22.5330   33.8250    3.4010 C   0  0  0  0  0  0
   23.1880   34.9570    2.6230 C   0  0  2  0  0  0
   24.6140   35.1150    3.0650 C   0  0  1  0  0  0
   25.4300   33.8570    2.7520 C   0  0  0  0  0  0
   24.7970   32.8140    3.6940 C   0  0  0  0  0  0
   18.7270   27.3240    0.5130 C   0  0  0  0  0  0
   21.8980   22.6810    6.6200 C   0  0  0  0  0  0
   25.7860   24.5900    7.6310 C   0  0  0  0  0  0
   27.9660   25.6050    3.9590 C   0  0  0  0  0  0
   29.0590   26.6380    3.8650 C   0  0  0  0  0  0
   22.8520   27.6540    7.0960 C   0  0  0  0  0  0
   22.5000   29.5470    2.8540 C   0  0  0  0  0  0
   24.0430   26.1000    1.4230 C   0  0  0  0  0  0
   21.7360   21.4330    2.9810 C   0  0  0  0  0  0
   21.3180   36.2290    1.9540 C   0  0  0  0  0  0
   18.4730   27.5640    5.2060 N   0  0  0  0  0  0
   20.9210   28.8230    5.3850 O   0  0  0  0  0  0
   20.1500   30.4800    6.6760 O   0  0  0  0  0  0
   17.5580   28.4650    3.2900 O   0  0  0  0  0  0
   16.7940   25.4150    3.4900 O   0  0  0  0  0  0
   19.7960   25.0910    3.3570 O   0  0  0  0  0  0
   18.5440   24.5690    1.5370 O   0  0  0  0  0  0
   23.0800   25.0020    1.5690 O   0  0  0  0  0  0
   22.4560   22.6080    3.4120 O   0  0  0  0  0  0
   25.8440   27.5570    3.7100 O   0  0  0  0  0  0
   24.8540   29.9460    6.8410 O   0  0  0  0  0  0
   22.4270   36.1980    2.8440 O   0  0  0  0  0  0
   25.1030   36.2280    2.3510 O   0  0  0  0  0  0
   24.4920   22.1070    7.0640 O   0  0  0  0  0  0
  1  2  1  0  0  0
  1 45  1  0  0  0
  1 46  1  0  0  0
  2  3  1  0  0  0
  2 44  1  0  0  0
  3  4  1  0  0  0
  4  5  1  0  0  0
  5  6  1  0  0  0
  6 44  1  0  0  0
  7  8  1  0  0  0
  7 44  1  0  0  0
  7 47  1  0  0  0
  8  9  1  0  0  0
  8 48  1  0  0  0
  9 10  1  0  0  0
  9 49  1  0  0  0
  9 50  1  0  0  0
 10 11  1  0  0  0
 10 34  1  0  0  0
 11 12  1  0  0  0
 12 13  1  0  0  0
 12 51  1  0  0  0
 13 14  1  0  0  0
 13 49  1  0  0  0
 14 15  1  0  0  0
 14 52  1  0  0  0
 15 16  1  0  0  0
 16 17  1  0  0  0
 16 35  1  0  0  0
 17 18  1  0  0  0
 17 57  1  0  0  0
 18 19  1  0  0  0
 18 36  1  0  0  0
 19 20  1  0  0  0
 20 21  1  0  0  0
 20 37  1  0  0  0
 21 22  1  0  0  0
 21 53  1  0  0  0
 22 23  1  0  0  0
 23 24  1  0  0  0
 23 54  1  0  0  0
 24 25  1  0  0  0
 24 39  1  0  0  0
 25 26  1  0  0  0
 25 45  1  0  0  0
 26 27  1  0  0  0
 26 40  1  0  0  0
 27 28  1  0  0  0
 28 29  1  0  0  0
 28 33  1  0  0  0
 29 30  1  0  0  0
 30 31  1  0  0  0
 30 55  1  0  0  0
 31 32  1  0  0  0
 31 56  1  0  0  0
 32 33  1  0  0  0
 37 38  1  0  0  0
 41 51  1  0  0  0
 42 52  1  0  0  0
 43 55  1  0  0  0
M  END
