2WEA
                    3D
 Structure written by MMmdl.
 39 42  0  0  1  0            999 V2000
   18.3240    8.1940   19.2700 O   0  0  0  0  0  0
   20.6460    5.3500   19.3010 C   0  0  2  0  0  0
   20.4000    4.0190   19.5400 C   0  0  0  0  0  0
   21.3790    3.1650   20.0840 C   0  0  0  0  0  0
   22.5950    3.6380   20.5120 C   0  0  0  0  0  0
   22.8690    5.0540   20.3820 C   0  0  2  0  0  0
   21.9270    5.8920   19.7190 C   0  0  2  0  0  0
   22.2400    7.2810   19.5530 C   0  0  0  0  0  0
   23.4200    7.8350   20.0410 C   0  0  2  0  0  0
   24.3610    6.9950   20.6940 C   0  0  0  0  0  0
   24.0980    5.6450   20.8270 C   0  0  0  0  0  0
   19.5030    6.2380   18.8080 C   0  0  0  0  0  0
   19.0670    7.3220   19.7830 C   0  0  1  0  0  0
   23.6400    9.3370   19.9820 C   0  0  0  0  0  0
   22.9820   10.0360   21.2190 C   0  0  2  0  0  0
   19.5730    7.3950   21.0100 N   0  0  0  0  0  0
   19.4800    8.5420   21.9310 C   0  0  2  0  0  0
   21.0040    8.8630   22.0560 C   0  0  2  0  0  0
   21.6090    8.2350   22.9450 O   0  0  0  0  0  0
   18.7350    8.2860   23.2190 C   0  0  0  0  0  0
   18.7460    9.6160   23.9800 C   0  0  0  0  0  0
   17.3240    7.8260   22.7770 C   0  0  0  0  0  0
   21.5280    9.7910   21.2620 N   0  0  0  0  0  0
   23.3010   11.8140   21.1240 P   0  0  0  0  0  0
   24.7480   12.0480   20.9510 O   0  0  0  0  0  0
   22.5020   12.4680   20.0940 O   0  0  0  0  0  0
   23.5590   13.4510   23.1560 C   0  0  1  0  0  0
   22.4750   14.4860   23.5190 C   0  0  0  0  0  0
   21.4740   13.9950   24.5040 C   0  0  0  0  0  0
   20.4650   13.1320   24.1330 C   0  0  0  0  0  0
   21.5310   14.4310   25.8010 C   0  0  0  0  0  0
   19.5650   12.6670   25.0680 C   0  0  0  0  0  0
   20.6380   13.9810   26.7540 C   0  0  0  0  0  0
   19.5870   13.1550   26.3720 C   0  0  0  0  0  0
   24.1510   12.8390   24.4310 C   0  0  2  0  0  0
   25.5120   13.4710   26.2230 C   0  0  0  0  0  0
   22.9760   12.2920   22.5840 O   0  0  0  0  0  0
   24.7450   13.8440   25.0500 O   0  0  0  0  0  0
   24.4250   11.6840   24.6420 O   0  0  0  0  0  0
  1 13  1  0  0  0
  2  3  1  0  0  0
  2  7  1  0  0  0
  2 12  1  0  0  0
  3  4  1  0  0  0
  4  5  1  0  0  0
  5  6  1  0  0  0
  6  7  1  0  0  0
  6 11  1  0  0  0
  7  8  1  0  0  0
  8  9  1  0  0  0
  9 10  1  0  0  0
  9 14  1  0  0  0
 10 11  1  0  0  0
 12 13  1  0  0  0
 13 16  1  0  0  0
 14 15  1  0  0  0
 15 23  1  0  0  0
 15 24  1  0  0  0
 16 17  1  0  0  0
 17 18  1  0  0  0
 17 20  1  0  0  0
 18 19  1  0  0  0
 18 23  1  0  0  0
 20 21  1  0  0  0
 20 22  1  0  0  0
 24 25  1  0  0  0
 24 26  1  0  0  0
 24 37  1  0  0  0
 27 28  1  0  0  0
 27 35  1  0  0  0
 27 37  1  0  0  0
 28 29  1  0  0  0
 29 30  1  0  0  0
 29 31  1  0  0  0
 30 32  1  0  0  0
 31 33  1  0  0  0
 32 34  1  0  0  0
 33 34  1  0  0  0
 35 38  1  0  0  0
 35 39  1  0  0  0
 36 38  1  0  0  0
M  END
