2ASP
                    3D
 Structure written by MMmdl.
 63 64  0  0  1  0            999 V2000
  133.6080   15.1920    5.6640 O   0  0  0  0  0  0
  134.7650   14.8560    5.7670 C   0  0  3  0  0  0
  135.8230   15.5860    5.3140 O   0  0  0  0  0  0
  135.2520   13.5620    6.3830 C   0  0  0  0  0  0
  134.3320   12.6980    6.8130 C   0  0  0  0  0  0
  134.7850   11.3720    7.4200 C   0  0  0  0  0  0
  133.9430   10.4180    7.8690 C   0  0  3  0  0  0
  132.3800   10.5530    7.8510 C   0  0  0  0  0  0
  134.6520    9.1710    8.3970 C   0  0  0  0  0  0
  134.4840    9.0300    9.9250 C   0  0  1  0  0  0
  133.0680    8.5200   10.0910 O   0  0  0  0  0  0
  132.5850    8.6200   11.5280 C   0  0  0  0  0  0
  135.4860    7.9980   10.4520 C   0  0  0  0  0  0
  136.8740    8.5110   10.3730 C   0  0  1  0  0  0
  137.7550    7.9300    9.5830 C   0  0  0  0  0  0
  139.1490    8.4230    9.4450 C   0  0  3  0  0  0
  139.9520    7.9230    8.6980 O   0  0  0  0  0  0
  137.2390    9.7440   11.1530 C   0  0  0  0  0  0
  138.7410    9.9350   11.3430 C   0  0  1  0  0  0
  139.5360    9.5280   10.1780 O   0  0  0  0  0  0
  139.1750   11.3590   11.6120 C   0  0  2  0  0  0
  140.6470   11.4360   12.0180 C   0  0  0  0  0  0
  138.4310   12.1110   12.6970 C   0  0  1  0  0  0
  138.1970   11.3810   13.8700 O   0  0  0  0  0  0
  137.2540   11.3750   14.9360 C   0  0  0  0  0  0
  138.6990   13.5640   13.0450 C   0  0  0  0  0  0
  138.3530   14.5560   11.8820 C   0  0  2  0  0  0
  139.0320   15.7810   12.3000 O   0  0  0  0  0  0
  139.1070   16.8200   11.2850 C   0  0  0  0  0  0
  136.7980   14.7210   12.0360 C   0  0  0  0  0  0
  136.1420   14.4240   10.9200 C   0  0  0  0  0  0
  134.6230   14.5620   10.9110 C   0  0  2  0  0  0
  133.9950   13.2140   10.7070 C   0  0  0  0  0  0
  134.1470   15.5810    9.8560 C   0  0  1  0  0  0
  132.7190   15.7110    9.9110 O   0  0  0  0  0  0
  131.9680   15.2600    8.7810 C   0  0  0  0  0  0
  134.7420   16.9340   10.1810 C   0  0  0  0  0  0
  134.5450   18.0120    9.1410 C   0  0  1  0  0  0
  134.8090   19.2670    9.7170 O   0  0  0  0  0  0
  134.2190   20.5090    9.3570 C   0  0  0  0  0  0
  135.3470   17.9110    7.8820 C   0  0  0  0  0  0
  134.9770   18.0040    6.6070 C   0  0  0  0  0  0
  135.9260   17.9470    5.4020 C   0  0  2  0  0  0
  135.5910   19.2540    4.6930 C   0  0  0  0  0  0
  135.4850   16.7450    4.5390 C   0  0  1  0  0  0
  136.3430   16.6780    3.2100 C   0  0  1  0  0  0
  137.8590   16.4570    3.4450 C   0  0  0  0  0  0
  135.8120   15.4950    2.3520 C   0  0  1  0  0  0
  134.4240   15.8170    2.0330 O   0  0  0  0  0  0
  133.5170   14.7260    2.1680 C   0  0  0  0  0  0
  136.5540   15.3670    0.9880 C   0  0  1  0  0  0
  135.9970   14.1420    0.1980 C   0  0  0  0  0  0
  136.5750   16.6150    0.0960 C   0  0  0  0  0  0
  137.4250   16.3700   -1.1800 C   0  0  0  0  0  0
  137.6910   17.7300   -1.8830 C   0  0  3  0  0  0
  137.3820   18.8010   -1.4510 O   0  0  0  0  0  0
  138.4410   17.3990   -3.1590 C   0  0  2  0  0  0
  139.6320   18.4570   -3.2400 C   0  0  0  0  0  0
  137.5210   17.6480   -4.4210 C   0  0  2  0  0  0
  136.4130   16.7880   -4.1790 O   0  0  0  0  0  0
  135.2410   17.2850   -4.8230 C   0  0  0  0  0  0
  138.2580   17.1460   -5.7270 C   0  0  0  0  0  0
  138.9170   15.7390   -5.6630 C   0  0  0  0  0  0
  1  2  1  0  0  0
  2  3  1  0  0  0
  2  4  1  0  0  0
  3 45  1  0  0  0
  4  5  1  0  0  0
  5  6  1  0  0  0
  6  7  1  0  0  0
  7  8  1  0  0  0
  7  9  1  0  0  0
  9 10  1  0  0  0
 10 11  1  0  0  0
 10 13  1  0  0  0
 11 12  1  0  0  0
 13 14  1  0  0  0
 14 15  1  0  0  0
 14 18  1  0  0  0
 15 16  1  0  0  0
 16 17  1  0  0  0
 16 20  1  0  0  0
 18 19  1  0  0  0
 19 20  1  0  0  0
 19 21  1  0  0  0
 21 22  1  0  0  0
 21 23  1  0  0  0
 23 24  1  0  0  0
 23 26  1  0  0  0
 24 25  1  0  0  0
 26 27  1  0  0  0
 27 28  1  0  0  0
 27 30  1  0  0  0
 28 29  1  0  0  0
 30 31  1  0  0  0
 31 32  1  0  0  0
 32 33  1  0  0  0
 32 34  1  0  0  0
 34 35  1  0  0  0
 34 37  1  0  0  0
 35 36  1  0  0  0
 37 38  1  0  0  0
 38 39  1  0  0  0
 38 41  1  0  0  0
 39 40  1  0  0  0
 41 42  1  0  0  0
 42 43  1  0  0  0
 43 44  1  0  0  0
 43 45  1  0  0  0
 45 46  1  0  0  0
 46 47  1  0  0  0
 46 48  1  0  0  0
 48 49  1  0  0  0
 48 51  1  0  0  0
 49 50  1  0  0  0
 51 52  1  0  0  0
 51 53  1  0  0  0
 53 54  1  0  0  0
 54 55  1  0  0  0
 55 56  1  0  0  0
 55 57  1  0  0  0
 57 58  1  0  0  0
 57 59  1  0  0  0
 59 60  1  0  0  0
 59 62  1  0  0  0
 60 61  1  0  0  0
 62 63  1  0  0  0
M  END
