1SKX
                    3D
 Structure written by MMmdl.
 51 54  0  0  1  0            999 V2000
   14.8060   77.1250   -1.2100 C   0  0  3  0  0  0
   14.9530   76.7510   -2.5930 C   0  0  3  0  0  0
   14.2410   77.3750   -3.6470 C   0  0  3  0  0  0
   13.3480   78.4320   -3.3310 C   0  0  3  0  0  0
   12.2150   79.9560   -1.5640 C   0  0  3  0  0  0
   12.0880   80.3040   -0.1640 C   0  0  3  0  0  0
   12.7550   79.7350    0.9040 C   0  0  3  0  0  0
   13.6980   78.6400    0.5820 C   0  0  3  0  0  0
   13.8880   78.2100   -0.8770 C   0  0  3  0  0  0
   13.1410   78.8610   -1.9790 C   0  0  3  0  0  0
   11.3470   80.8020   -2.2760 C   0  0  3  0  0  0
   10.6460   81.7030   -1.2870 C   0  0  2  0  0  0
   10.9160   83.1760   -1.5580 C   0  0  0  0  0  0
   12.5680   80.1680    2.3500 C   0  0  0  0  0  0
   17.1470   75.5830   -2.7660 C   0  0  3  0  0  0
   17.6400   74.2550   -3.3350 C   0  0  3  0  0  0
   16.8930   73.0920   -3.3370 C   0  0  0  0  0  0
   15.5230   72.8410   -2.8240 C   0  0  0  0  0  0
   14.7310   71.9080   -3.3150 C   0  0  0  0  0  0
   13.2380   71.9370   -3.6520 C   0  0  1  0  0  0
   12.2890   72.6160   -2.6350 C   0  0  1  0  0  0
   10.7690   72.5470   -2.9870 C   0  0  2  0  0  0
    9.8080   73.2340   -1.9900 C   0  0  2  0  0  0
    9.4590   74.6940   -2.3360 C   0  0  2  0  0  0
    8.7040   75.3920   -1.1870 C   0  0  1  0  0  0
    9.1420   76.9080   -1.0390 C   0  0  1  0  0  0
    8.1200   77.8900   -0.3890 C   0  0  2  0  0  0
    8.6220   79.3300   -0.2860 C   0  0  0  0  0  0
    8.6940   80.1240   -1.3460 C   0  0  0  0  0  0
   19.0360   74.3270   -3.9140 C   0  0  0  0  0  0
   13.1190   72.5420   -5.0820 C   0  0  0  0  0  0
   10.2780   71.0930   -3.2010 C   0  0  0  0  0  0
    8.6900   74.8020   -3.6660 C   0  0  0  0  0  0
   10.4690   76.8700   -0.2740 C   0  0  0  0  0  0
    6.3990   74.5210   -0.6260 C   0  0  3  0  0  0
    5.0210   74.4980   -1.0880 C   0  0  0  0  0  0
    6.3960   77.6190    1.3030 C   0  0  0  0  0  0
   14.3800   76.9970   -5.0480 C   0  0  0  0  0  0
   15.8150   75.7050   -2.9500 N   0  0  0  0  0  0
   15.5210   76.4690   -0.2660 O   0  0  0  0  0  0
   14.3560   78.0450    1.5130 O   0  0  0  0  0  0
   11.1740   81.3300    0.0270 O   0  0  0  0  0  0
   11.0840   80.9140   -3.5060 O   0  0  0  0  0  0
    9.2030   81.4680   -1.3130 O   0  0  0  0  0  0
    7.7960   77.4010    0.9630 O   0  0  0  0  0  0
    7.2150   75.2500   -1.4800 O   0  0  0  0  0  0
    6.7870   73.9760    0.3620 O   0  0  0  0  0  0
   10.3370   73.2330   -0.6280 O   0  0  0  0  0  0
   12.5330   71.9770   -1.3730 O   0  0  0  0  0  0
   17.9010   76.3930   -2.2240 O   0  0  0  0  0  0
   12.6980   78.9800   -4.4220 O   0  0  0  0  0  0
  1  2  1  0  0  0
  1  9  1  0  0  0
  1 40  1  0  0  0
  2  3  1  0  0  0
  2 39  1  0  0  0
  3  4  1  0  0  0
  3 38  1  0  0  0
  4 10  1  0  0  0
  4 51  1  0  0  0
  5  6  1  0  0  0
  5 10  1  0  0  0
  5 11  1  0  0  0
  6  7  1  0  0  0
  6 42  1  0  0  0
  7  8  1  0  0  0
  7 14  1  0  0  0
  8  9  1  0  0  0
  8 41  1  0  0  0
  9 10  1  0  0  0
 11 12  1  0  0  0
 11 43  1  0  0  0
 12 13  1  0  0  0
 12 42  1  0  0  0
 12 44  1  0  0  0
 15 16  1  0  0  0
 15 39  1  0  0  0
 15 50  1  0  0  0
 16 17  1  0  0  0
 16 30  1  0  0  0
 17 18  1  0  0  0
 18 19  1  0  0  0
 19 20  1  0  0  0
 20 21  1  0  0  0
 20 31  1  0  0  0
 21 22  1  0  0  0
 21 49  1  0  0  0
 22 23  1  0  0  0
 22 32  1  0  0  0
 23 24  1  0  0  0
 23 48  1  0  0  0
 24 25  1  0  0  0
 24 33  1  0  0  0
 25 26  1  0  0  0
 25 46  1  0  0  0
 26 27  1  0  0  0
 26 34  1  0  0  0
 27 28  1  0  0  0
 27 45  1  0  0  0
 28 29  1  0  0  0
 29 44  1  0  0  0
 35 36  1  0  0  0
 35 46  1  0  0  0
 35 47  1  0  0  0
 37 45  1  0  0  0
M  END
