2GPL
                    3D
 Structure written by MMmdl.
 48 51  0  0  1  0            999 V2000
   12.3940 -161.0530   26.3970 C   0  0  0  0  0  0
   11.3220 -161.9500   26.0960 C   0  0  0  0  0  0
   10.0190 -161.9270   26.9040 C   0  0  0  0  0  0
    9.9150 -162.9460   27.9750 O   0  0  0  0  0  0
   10.6040 -162.6760   29.1590 C   0  0  2  0  0  0
   10.3270 -163.6450   30.1670 N   0  0  0  0  0  0
   10.8320 -163.5950   31.5780 C   0  0  2  0  0  0
   10.1880 -162.4140   32.2610 C   0  0  1  0  0  0
   10.7320 -161.3460   32.1250 O   0  0  0  0  0  0
    9.0350 -162.3940   32.9880 N   0  0  0  0  0  0
    8.1620 -163.4710   33.4780 C   0  0  1  0  0  0
    7.4690 -164.6000   32.6800 C   0  0  0  0  0  0
    6.1170 -164.2640   32.0890 C   0  0  3  0  0  0
    5.9650 -163.1980   31.3140 N   0  0  0  0  0  0
    5.1700 -165.0210   32.3430 O   0  0  0  0  0  0
    8.3950 -163.7860   34.9470 C   0  0  1  0  0  0
    9.2880 -164.5740   35.2030 O   0  0  0  0  0  0
    7.7890 -162.9620   35.8540 N   0  0  0  0  0  0
    8.0870 -162.9850   37.2860 C   0  0  2  0  0  0
    6.7840 -163.2440   37.9660 C   0  0  3  0  0  0
    5.7920 -162.5900   37.6630 O   0  0  0  0  0  0
    6.8280 -164.2470   38.8750 N   0  0  0  0  0  0
    5.7410 -164.7510   39.6820 C   0  0  0  0  0  0
    6.3640 -165.8970   40.5100 C   0  0  0  0  0  0
    5.3500 -166.5550   41.4360 C   0  0  0  0  0  0
    8.7630 -161.7260   37.9190 C   0  0  0  0  0  0
   10.1570 -161.4910   37.3210 C   0  0  3  0  0  0
   11.3120 -162.1150   37.8860 C   0  0  0  0  0  0
   12.5980 -161.9270   37.3270 C   0  0  0  0  0  0
   12.7630 -161.1220   36.1810 C   0  0  1  0  0  0
   14.0240 -161.1410   35.4910 O   0  0  0  0  0  0
   14.1420 -162.3300   34.6510 C   0  0  1  0  0  0
   13.2410 -162.4620   33.5570 C   0  0  0  0  0  0
   13.3780 -163.4640   32.5690 C   0  0  3  0  0  0
   14.4690 -164.3640   32.6730 C   0  0  0  0  0  0
   15.3980 -164.2770   33.7430 C   0  0  0  0  0  0
   15.2690 -163.2680   34.7560 C   0  0  3  0  0  0
   16.1960 -163.2250   35.7840 N   0  3  0  0  0  0
   16.6350 -164.3110   36.2040 O   0  5  0  0  0  0
   16.5250 -162.1370   36.2540 O   0  0  0  0  0  0
   12.4000 -163.5780   31.3740 C   0  0  0  0  0  0
   11.6070 -160.4670   35.6040 C   0  0  0  0  0  0
   10.3100 -160.6590   36.1780 C   0  0  0  0  0  0
   11.2910 -161.6580   29.3180 O   0  0  0  0  0  0
   11.4590 -162.8880   25.0400 C   0  0  0  0  0  0
   12.6530 -162.9270   24.2870 C   0  0  0  0  0  0
   13.7210 -162.0360   24.5910 C   0  0  0  0  0  0
   13.5900 -161.0940   25.6420 C   0  0  0  0  0  0
  1  2  1  0  0  0
  1 48  1  0  0  0
  2  3  1  0  0  0
  2 45  1  0  0  0
  3  4  1  0  0  0
  4  5  1  0  0  0
  5  6  1  0  0  0
  5 44  1  0  0  0
  6  7  1  0  0  0
  7  8  1  0  0  0
  7 41  1  0  0  0
  8  9  1  0  0  0
  8 10  1  0  0  0
 10 11  1  0  0  0
 11 12  1  0  0  0
 11 16  1  0  0  0
 12 13  1  0  0  0
 13 14  1  0  0  0
 13 15  1  0  0  0
 16 17  1  0  0  0
 16 18  1  0  0  0
 18 19  1  0  0  0
 19 20  1  0  0  0
 19 26  1  0  0  0
 20 21  1  0  0  0
 20 22  1  0  0  0
 22 23  1  0  0  0
 23 24  1  0  0  0
 24 25  1  0  0  0
 26 27  1  0  0  0
 27 28  1  0  0  0
 27 43  1  0  0  0
 28 29  1  0  0  0
 29 30  1  0  0  0
 30 31  1  0  0  0
 30 42  1  0  0  0
 31 32  1  0  0  0
 32 33  1  0  0  0
 32 37  1  0  0  0
 33 34  1  0  0  0
 34 35  1  0  0  0
 34 41  1  0  0  0
 35 36  1  0  0  0
 36 37  1  0  0  0
 37 38  1  0  0  0
 38 39  1  0  0  0
 38 40  2  0  0  0
 42 43  1  0  0  0
 45 46  1  0  0  0
 46 47  1  0  0  0
 47 48  1  0  0  0
M  CHG  2  38   1  39  -1
M  END
