1FKJ
                    3D
 Structure written by MMmdl.
 57 60  0  0  1  0            999 V2000
   19.9490   28.5680   21.8570 C   0  0  2  0  0  0
   18.5680   29.2180   21.9700 C   0  0  2  0  0  0
   17.9640   29.3850   20.5740 C   0  0  0  0  0  0
   18.6010   30.5210   19.7410 C   0  0  0  0  0  0
   18.4150   31.8300   20.4740 C   0  0  0  0  0  0
   19.0350   31.6930   21.8620 C   0  0  0  0  0  0
   17.8510   30.6210   23.8590 C   0  0  3  0  0  0
   17.6760   31.8340   24.5460 C   0  0  1  0  0  0
   18.8010   32.3560   25.5030 C   0  0  1  0  0  0
   19.4560   31.2560   26.3820 C   0  0  1  0  0  0
   20.8150   31.7500   26.9900 C   0  0  0  0  0  0
   21.7170   32.4490   25.9220 C   0  0  1  0  0  0
   20.9200   33.5710   25.2370 C   0  0  1  0  0  0
   21.5930   34.5020   24.1650 C   0  0  2  0  0  0
   22.3720   33.7450   23.0450 C   0  0  0  0  0  0
   22.9530   34.5470   21.8340 C   0  0  2  0  0  0
   24.4210   35.0990   22.0620 C   0  0  0  0  0  0
   25.4600   33.9540   21.9020 C   0  0  2  0  0  0
   25.9660   33.3520   23.0260 C   0  0  0  0  0  0
   27.0140   32.2090   23.1430 C   0  0  2  0  0  0
   26.2320   30.8580   23.2780 C   0  0  1  0  0  0
   26.0690   30.0360   21.9760 C   0  0  0  0  0  0
   24.8560   29.0920   22.0330 C   0  0  1  0  0  0
   23.4400   29.7780   22.1230 C   0  0  2  0  0  0
   22.3560   28.6810   22.3690 C   0  0  1  0  0  0
   22.5560   27.8570   23.6720 C   0  0  2  0  0  0
   22.7290   26.5200   23.5250 C   0  0  0  0  0  0
   23.3550   25.5680   24.5590 C   0  0  1  0  0  0
   22.5230   24.2530   24.4380 C   0  0  0  0  0  0
   23.1300   23.1360   25.2860 C   0  0  2  0  0  0
   24.6070   22.9410   24.8660 C   0  0  1  0  0  0
   25.4660   24.2210   25.0170 C   0  0  0  0  0  0
   24.8530   25.3700   24.1760 C   0  0  0  0  0  0
   18.4750   30.7070   27.4450 C   0  0  0  0  0  0
   22.0050   35.6680   21.3220 C   0  0  0  0  0  0
   25.9280   33.6840   20.4370 C   0  0  0  0  0  0
   27.9220   32.5140   24.4170 C   0  0  0  0  0  0
   28.8940   31.3770   24.7430 C   0  0  0  0  0  0
   29.7360   30.8260   23.8460 C   0  0  0  0  0  0
   23.0470   30.6030   20.8420 C   0  0  0  0  0  0
   22.4640   28.5370   25.0440 C   0  0  0  0  0  0
   24.0700   32.1360   26.6290 C   0  0  0  0  0  0
   21.8100   36.7650   25.2100 C   0  0  0  0  0  0
   21.4340   21.4470   25.9070 C   0  0  0  0  0  0
   18.4440   30.5440   22.6150 N   0  0  0  0  0  0
   21.0270   29.2950   22.3810 O   0  0  0  0  0  0
   20.1330   27.5380   21.2870 O   0  0  0  0  0  0
   17.4380   29.6180   24.4570 O   0  0  0  0  0  0
   16.7210   32.5660   24.3060 O   0  0  0  0  0  0
   19.7840   32.9460   24.6080 O   0  0  0  0  0  0
   18.2770   33.3910   26.3670 O   0  0  0  0  0  0
   22.9240   33.0190   26.5510 O   0  0  0  0  0  0
   22.4570   35.5050   24.7910 O   0  0  0  0  0  0
   25.9730   30.3640   24.3760 O   0  0  0  0  0  0
   24.9100   28.1630   20.9360 O   0  0  0  0  0  0
   22.3820   21.9370   24.9510 O   0  0  0  0  0  0
   25.1840   21.8630   25.6250 O   0  0  0  0  0  0
  1  2  1  0  0  0
  1 46  1  0  0  0
  1 47  1  0  0  0
  2  3  1  0  0  0
  2 45  1  0  0  0
  3  4  1  0  0  0
  4  5  1  0  0  0
  5  6  1  0  0  0
  6 45  1  0  0  0
  7  8  1  0  0  0
  7 45  1  0  0  0
  7 48  1  0  0  0
  8  9  1  0  0  0
  8 49  1  0  0  0
  9 10  1  0  0  0
  9 50  1  0  0  0
  9 51  1  0  0  0
 10 11  1  0  0  0
 10 34  1  0  0  0
 11 12  1  0  0  0
 12 13  1  0  0  0
 12 52  1  0  0  0
 13 14  1  0  0  0
 13 50  1  0  0  0
 14 15  1  0  0  0
 14 53  1  0  0  0
 15 16  1  0  0  0
 16 17  1  0  0  0
 16 35  1  0  0  0
 17 18  1  0  0  0
 18 19  1  0  0  0
 18 36  1  0  0  0
 19 20  1  0  0  0
 20 21  1  0  0  0
 20 37  1  0  0  0
 21 22  1  0  0  0
 21 54  1  0  0  0
 22 23  1  0  0  0
 23 24  1  0  0  0
 23 55  1  0  0  0
 24 25  1  0  0  0
 24 40  1  0  0  0
 25 26  1  0  0  0
 25 46  1  0  0  0
 26 27  1  0  0  0
 26 41  1  0  0  0
 27 28  1  0  0  0
 28 29  1  0  0  0
 28 33  1  0  0  0
 29 30  1  0  0  0
 30 31  1  0  0  0
 30 56  1  0  0  0
 31 32  1  0  0  0
 31 57  1  0  0  0
 32 33  1  0  0  0
 37 38  1  0  0  0
 38 39  1  0  0  0
 42 52  1  0  0  0
 43 53  1  0  0  0
 44 56  1  0  0  0
M  END
