1EHL
                    3D
 Structure written by MMmdl.
 37 41  0  0  1  0            999 V2000
   -2.8690   61.3500   12.3330 O   0  0  0  0  0  0
   -1.7040   61.6110   11.5670 C   0  0  0  0  0  0
   -0.4720   61.0290   12.2200 C   0  0  1  0  0  0
   -0.8420   60.6180   13.5840 O   0  0  0  0  0  0
    0.0620   59.7550   11.6060 C   0  0  1  0  0  0
    0.9370   59.9620   10.5000 O   0  0  0  0  0  0
    0.7210   59.0330   12.7610 C   0  0  0  0  0  0
    0.0100   59.5520   14.0160 C   0  0  2  0  0  0
   -0.7610   58.3710   14.6060 N   0  0  0  0  0  0
   -0.3690   57.8200   15.6830 C   0  0  3  0  0  0
    0.6600   58.1540   16.2180 O   0  0  0  0  0  0
   -1.1100   56.7820   16.2650 N   0  0  0  0  0  0
   -2.3270   56.2950   15.7410 C   0  0  3  0  0  0
   -2.7810   55.2290   16.1040 O   0  0  0  0  0  0
   -3.0040   57.1700   14.7090 C   0  0  2  0  0  0
   -3.7900   58.2780   15.4160 C   0  0  0  0  0  0
   -3.8780   56.3780   13.9540 O   0  0  0  0  0  0
   -1.9170   57.8290   13.7440 C   0  0  2  0  0  0
    0.4520   59.5700    9.0400 P   0  0  0  0  0  0
    1.1670   60.4270    8.0540 O   0  0  0  0  0  0
   -1.0150   59.6040    9.1520 O   0  5  0  0  0  0
    0.7610   58.0150    8.9320 O   0  0  0  0  0  0
    2.0590   57.5030    8.8360 C   0  0  0  0  0  0
    1.9680   56.0240    8.5560 C   0  0  1  0  0  0
    1.9490   55.1640    9.7630 O   0  0  0  0  0  0
    0.8020   55.5730    7.6750 C   0  0  1  0  0  0
    1.2170   54.9350    6.4800 O   0  0  0  0  0  0
    0.0080   54.6130    8.5460 C   0  0  0  0  0  0
    0.7090   54.4780    9.8940 C   0  0  2  0  0  0
   -0.0300   55.2860   10.9150 N   0  0  0  0  0  0
    0.3750   55.2660   12.2030 C   0  0  0  0  0  0
    1.3470   54.5390   12.5720 O   0  0  0  0  0  0
   -0.2880   56.0970   13.1160 N   0  0  0  0  0  0
   -1.3080   56.8790   12.6720 C   0  0  2  0  0  0
   -1.7510   56.8830   11.3630 C   0  0  0  0  0  0
   -2.8600   57.7260   10.8360 C   0  0  0  0  0  0
   -1.0680   56.0640   10.5000 C   0  0  0  0  0  0
  1  2  1  0  0  0
  2  3  1  0  0  0
  3  4  1  0  0  0
  3  5  1  0  0  0
  4  8  1  0  0  0
  5  6  1  0  0  0
  5  7  1  0  0  0
  6 19  1  0  0  0
  7  8  1  0  0  0
  8  9  1  0  0  0
  9 10  1  0  0  0
  9 18  1  0  0  0
 10 11  1  0  0  0
 10 12  1  0  0  0
 12 13  1  0  0  0
 13 14  1  0  0  0
 13 15  1  0  0  0
 15 16  1  0  0  0
 15 17  1  0  0  0
 15 18  1  0  0  0
 18 34  1  0  0  0
 19 20  2  0  0  0
 19 21  1  0  0  0
 19 22  1  0  0  0
 22 23  1  0  0  0
 23 24  1  0  0  0
 24 25  1  0  0  0
 24 26  1  0  0  0
 25 29  1  0  0  0
 26 27  1  0  0  0
 26 28  1  0  0  0
 28 29  1  0  0  0
 29 30  1  0  0  0
 30 31  1  0  0  0
 30 37  1  0  0  0
 31 32  2  0  0  0
 31 33  1  0  0  0
 33 34  1  0  0  0
 34 35  1  0  0  0
 35 36  1  0  0  0
 35 37  2  0  0  0
M  CHG  1  21  -1
M  END
