3I6O
                    3D
 Structure written by MMmdl.
 44 48  0  0  1  0            999 V2000
   12.2980  -24.8740   -3.0270 C   0  0  3  0  0  0
   12.2880  -24.6470   -4.3990 C   0  0  0  0  0  0
   13.3080  -23.8730   -4.9640 C   0  0  3  0  0  0
   14.3120  -23.3440   -4.1530 C   0  0  1  0  0  0
   14.3090  -23.5820   -2.7740 C   0  0  0  0  0  0
   13.3060  -24.3430   -2.2120 C   0  0  0  0  0  0
   15.7530  -22.4820   -4.7990 S   0  0  0  0  0  0
   16.6680  -22.3720   -3.6950 O   0  0  0  0  0  0
   16.1650  -23.1850   -6.0180 O   0  0  0  0  0  0
   15.3190  -20.9300   -5.2780 N   0  0  0  0  0  0
   14.7970  -20.7160   -6.6240 C   0  0  0  0  0  0
   15.8950  -20.5540   -7.6900 C   0  0  0  0  0  0
   15.3940  -19.9670   -9.0280 C   0  0  0  0  0  0
   14.4310  -20.8270   -9.8590 C   0  0  0  0  0  0
   15.1890  -19.9300   -4.2080 C   0  0  0  0  0  0
   16.1710  -18.7890   -4.5560 C   0  0  1  0  0  0
   15.7850  -17.6530   -3.7710 O   0  0  0  0  0  0
   17.6510  -19.1450   -4.3330 C   0  0  1  0  0  0
   18.4780  -18.0470   -4.8860 N   0  0  0  0  0  0
   19.1830  -18.2540   -6.0300 C   0  0  3  0  0  0
   19.3370  -19.3000   -6.6390 O   0  0  0  0  0  0
   19.7110  -17.0650   -6.4030 O   0  0  0  0  0  0
   20.7190  -17.0650   -7.4440 C   0  0  1  0  0  0
   20.4390  -15.7750   -8.2300 C   0  0  0  0  0  0
   20.9550  -14.7120   -7.4440 O   0  0  0  0  0  0
   22.1180  -15.1590   -6.7360 C   0  0  1  0  0  0
   21.9890  -14.8090   -5.3870 O   0  0  0  0  0  0
   21.7960  -15.9580   -4.5390 C   0  0  0  0  0  0
   22.3320  -17.1240   -5.3550 C   0  0  0  0  0  0
   22.1000  -16.7070   -6.8250 C   0  0  1  0  0  0
   17.9910  -19.2580   -2.8050 C   0  0  0  0  0  0
   20.2950  -18.4630   -2.1380 C   0  0  0  0  0  0
   21.6730  -18.6280   -2.0280 C   0  0  0  0  0  0
   22.2450  -19.8270   -2.4900 C   0  0  0  0  0  0
   21.4550  -20.8390   -3.0510 C   0  0  0  0  0  0
   20.0820  -20.6600   -3.1540 C   0  0  0  0  0  0
   19.4930  -19.4690   -2.6970 C   0  0  0  0  0  0
   11.3380  -25.6150   -2.4170 O   0  0  0  0  0  0
   10.5340  -26.4300   -3.2670 C   0  0  0  0  0  0
   13.3490  -23.6150   -6.3180 O   0  0  0  0  0  0
   12.2820  -24.1260   -7.1400 C   0  0  0  0  0  0
   12.5580  -23.9800   -8.6270 C   0  0  0  0  0  0
   12.8540  -22.5590   -9.0040 C   0  0  0  0  0  0
   14.0780  -22.2260   -9.4680 C   0  0  0  0  0  0
  1  2  1  0  0  0
  1  6  1  0  0  0
  1 38  1  0  0  0
  2  3  1  0  0  0
  3  4  1  0  0  0
  3 40  1  0  0  0
  4  5  1  0  0  0
  4  7  1  0  0  0
  5  6  1  0  0  0
  7  8  2  0  0  0
  7  9  2  0  0  0
  7 10  1  0  0  0
 10 11  1  0  0  0
 10 15  1  0  0  0
 11 12  1  0  0  0
 12 13  1  0  0  0
 13 14  1  0  0  0
 14 44  1  0  0  0
 15 16  1  0  0  0
 16 17  1  0  0  0
 16 18  1  0  0  0
 18 19  1  0  0  0
 18 31  1  0  0  0
 19 20  1  0  0  0
 20 21  1  0  0  0
 20 22  1  0  0  0
 22 23  1  0  0  0
 23 24  1  0  0  0
 23 30  1  0  0  0
 24 25  1  0  0  0
 25 26  1  0  0  0
 26 27  1  0  0  0
 26 30  1  0  0  0
 27 28  1  0  0  0
 28 29  1  0  0  0
 29 30  1  0  0  0
 31 37  1  0  0  0
 32 33  1  0  0  0
 32 37  1  0  0  0
 33 34  1  0  0  0
 34 35  1  0  0  0
 35 36  1  0  0  0
 36 37  1  0  0  0
 38 39  1  0  0  0
 40 41  1  0  0  0
 41 42  1  0  0  0
 42 43  1  0  0  0
 43 44  1  0  0  0
M  END
