2PH8
                    3D
 Structure written by MMmdl.
 32 34  0  0  1  0            999 V2000
   28.6480   41.9880    0.6210 C   0  0  3  0  0  0
   29.8060   42.9190    0.7930 C   0  0  0  0  0  0
   33.3860   41.3570   -0.4010 C   0  0  0  0  0  0
   32.9880   39.9990    0.0830 C   0  0  0  0  0  0
   29.6800   39.8810    1.5750 O   0  0  0  0  0  0
   28.7290   40.4780    0.6530 C   0  0  0  0  0  0
   32.9350   39.7370    1.3860 C   0  0  3  0  0  0
   32.5530   38.3690    1.8910 C   0  0  0  0  0  0
   31.1140   38.1670    2.3560 C   0  0  1  0  0  0
   33.6880   42.3190    0.4660 C   0  0  0  0  0  0
   33.6230   42.0430    1.9360 C   0  0  3  0  0  0
   33.2740   40.8310    2.3430 C   0  0  0  0  0  0
   31.0910   45.6780    2.2900 C   0  0  0  0  0  0
   31.8070   44.6160    3.1390 C   0  0  1  0  0  0
   33.2830   44.4680    2.7270 C   0  0  0  0  0  0
   33.9680   43.1170    2.9620 C   0  0  0  0  0  0
   29.6050   44.2420    0.7230 C   0  0  3  0  0  0
   30.7470   45.2320    0.8780 C   0  0  0  0  0  0
   28.3820   44.7920    0.4910 N   0  0  0  0  0  0
   27.4610   42.5320    0.3930 C   0  0  0  0  0  0
   27.3630   44.0120    0.3530 C   0  0  2  0  0  0
   26.1320   44.5290    0.0920 N   0  0  0  0  0  0
   25.4760   45.6950    1.1270 S   0  0  0  0  0  0
   25.9950   47.2230    0.5280 C   0  0  0  0  0  0
   23.8160   45.6250    0.9680 O   0  0  0  0  0  0
   26.1120   45.5140    2.6530 O   0  0  0  0  0  0
   25.6970   44.5070   -1.3130 C   0  0  0  0  0  0
   31.6490   44.9280    4.6290 C   0  0  0  0  0  0
   30.1830   38.6610    1.2800 C   0  0  2  0  0  0
   30.0050   38.0210    0.2570 O   0  0  0  0  0  0
   30.8590   36.6700    2.6030 C   0  0  0  0  0  0
   30.8490   38.8790    3.6430 N   0  0  0  0  0  0
  1  2  1  0  0  0
  1  6  1  0  0  0
  1 20  1  0  0  0
  2 17  1  0  0  0
  3  4  1  0  0  0
  3 10  1  0  0  0
  4  7  1  0  0  0
  5  6  1  0  0  0
  5 29  1  0  0  0
  7  8  1  0  0  0
  7 12  1  0  0  0
  8  9  1  0  0  0
  9 29  1  0  0  0
  9 31  1  0  0  0
  9 32  1  0  0  0
 10 11  1  0  0  0
 11 12  1  0  0  0
 11 16  1  0  0  0
 13 14  1  0  0  0
 13 18  1  0  0  0
 14 15  1  0  0  0
 14 28  1  0  0  0
 15 16  1  0  0  0
 17 18  1  0  0  0
 17 19  1  0  0  0
 19 21  1  0  0  0
 20 21  1  0  0  0
 21 22  1  0  0  0
 22 23  1  0  0  0
 22 27  1  0  0  0
 23 24  1  0  0  0
 23 25  1  0  0  0
 23 26  1  0  0  0
 29 30  1  0  0  0
M  END
