1JFF
                    3D
 Structure written by MMmdl.
 62 68  0  0  1  0            999 V2000
   -2.1860  -18.1850   15.8430 O   0  0  0  0  0  0
   -0.7850  -18.3750   15.5660 C   0  0  1  0  0  0
   -0.7040  -19.0240   14.0730 C   0  0  1  0  0  0
   -1.3580  -17.9810   13.2510 O   0  0  0  0  0  0
   -2.6470  -18.2450   12.7320 C   0  0  3  0  0  0
   -3.2330  -19.2880   12.8920 O   0  0  0  0  0  0
   -3.1740  -17.1450   11.9660 C   0  0  0  0  0  0
   -4.5560  -16.8450   12.3410 C   0  0  0  0  0  0
   -5.1760  -15.7150   11.5820 C   0  0  0  0  0  0
   -4.4540  -15.0080   10.5800 C   0  0  0  0  0  0
   -3.2720  -15.3520   10.3440 C   0  0  0  0  0  0
   -2.5370  -16.3960   10.9680 C   0  0  0  0  0  0
    0.7530  -19.3200   13.4240 C   0  0  2  0  0  0
    0.9040  -18.8570   11.8880 C   0  0  2  0  0  0
    0.7630  -17.3850   11.7260 O   0  0  0  0  0  0
    1.6980  -16.5020   12.2150 C   0  0  3  0  0  0
    2.6910  -16.8020   12.8080 O   0  0  0  0  0  0
    1.2730  -15.0890   11.8770 C   0  0  0  0  0  0
   -0.0870  -19.3890   10.8190 C   0  0  0  0  0  0
    0.9710  -19.9510   10.0080 O   0  0  0  0  0  0
    1.9670  -19.4890   10.9450 C   0  0  2  0  0  0
    2.8460  -20.6610   11.4950 C   0  0  0  0  0  0
    2.7900  -20.8190   13.0090 C   0  0  2  0  0  0
    3.6010  -21.9570   13.4020 O   0  0  0  0  0  0
    1.2950  -20.9080   13.5840 C   0  0  2  0  0  0
    0.4850  -21.9430   12.7460 C   0  0  0  0  0  0
    1.3140  -21.5680   15.0650 C   0  0  3  0  0  0
    0.7780  -22.6510   15.2340 O   0  0  0  0  0  0
    1.9650  -20.8690   16.2650 C   0  0  2  0  0  0
    1.7740  -21.7440   17.4580 O   0  0  0  0  0  0
    2.8600  -22.3590   18.0470 C   0  0  3  0  0  0
    3.9910  -22.2550   17.6840 O   0  0  0  0  0  0
    2.4200  -23.1910   19.2200 C   0  0  0  0  0  0
    1.3490  -19.4840   16.4760 C   0  0  1  0  0  0
    2.1410  -18.3510   16.3200 C   0  0  2  0  0  0
    1.4030  -16.9790   16.3910 C   0  0  1  0  0  0
    2.1820  -15.8480   15.8660 O   0  0  0  0  0  0
    2.8990  -15.1380   16.7270 C   0  0  3  0  0  0
    3.0020  -15.3100   17.9020 O   0  0  0  0  0  0
    3.6200  -13.9770   15.9930 C   0  0  2  0  0  0
    4.3330  -13.2270   16.9580 O   0  0  0  0  0  0
    2.5530  -13.1370   15.2470 C   0  0  1  0  0  0
    1.5290  -12.7850   16.2240 N   0  0  0  0  0  0
    0.2430  -12.5310   15.8860 C   0  0  3  0  0  0
   -0.1660  -12.5580   14.7310 O   0  0  0  0  0  0
   -0.6430  -12.2440   17.0490 C   0  0  0  0  0  0
   -0.4530  -11.1770   17.9250 C   0  0  0  0  0  0
   -1.3300  -10.9640   19.0230 C   0  0  0  0  0  0
   -2.4180  -11.8560   19.2330 C   0  0  0  0  0  0
   -2.6140  -12.9190   18.3680 C   0  0  0  0  0  0
   -1.7560  -13.1370   17.2850 C   0  0  0  0  0  0
    3.1890  -11.9270   14.5300 C   0  0  0  0  0  0
    3.5850  -12.0880   13.1920 C   0  0  0  0  0  0
    4.1830  -11.0160   12.4780 C   0  0  0  0  0  0
    4.3780   -9.7780   13.1150 C   0  0  0  0  0  0
    3.9870   -9.6140   14.4320 C   0  0  0  0  0  0
    3.3880  -10.6850   15.1550 C   0  0  0  0  0  0
    0.0560  -17.0090   15.5710 C   0  0  0  0  0  0
    3.6310  -18.3290   15.9960 C   0  0  0  0  0  0
   -0.2210  -19.3430   16.7880 C   0  0  0  0  0  0
   -0.4020  -18.6900   18.2330 C   0  0  0  0  0  0
   -1.0750  -20.6280   16.8900 C   0  0  0  0  0  0
  1  2  1  0  0  0
  2  3  1  0  0  0
  2 58  1  0  0  0
  2 60  1  0  0  0
  3  4  1  0  0  0
  3 13  1  0  0  0
  4  5  1  0  0  0
  5  6  1  0  0  0
  5  7  1  0  0  0
  7  8  1  0  0  0
  7 12  1  0  0  0
  8  9  1  0  0  0
  9 10  1  0  0  0
 10 11  1  0  0  0
 11 12  1  0  0  0
 13 14  1  0  0  0
 13 25  1  0  0  0
 14 15  1  0  0  0
 14 19  1  0  0  0
 14 21  1  0  0  0
 15 16  1  0  0  0
 16 17  1  0  0  0
 16 18  1  0  0  0
 19 20  1  0  0  0
 20 21  1  0  0  0
 21 22  1  0  0  0
 22 23  1  0  0  0
 23 24  1  0  0  0
 23 25  1  0  0  0
 25 26  1  0  0  0
 25 27  1  0  0  0
 27 28  1  0  0  0
 27 29  1  0  0  0
 29 30  1  0  0  0
 29 34  1  0  0  0
 30 31  1  0  0  0
 31 32  1  0  0  0
 31 33  1  0  0  0
 34 35  1  0  0  0
 34 60  1  0  0  0
 35 36  1  0  0  0
 35 59  1  0  0  0
 36 37  1  0  0  0
 36 58  1  0  0  0
 37 38  1  0  0  0
 38 39  1  0  0  0
 38 40  1  0  0  0
 40 41  1  0  0  0
 40 42  1  0  0  0
 42 43  1  0  0  0
 42 52  1  0  0  0
 43 44  1  0  0  0
 44 45  1  0  0  0
 44 46  1  0  0  0
 46 47  1  0  0  0
 46 51  1  0  0  0
 47 48  1  0  0  0
 48 49  1  0  0  0
 49 50  1  0  0  0
 50 51  1  0  0  0
 52 53  1  0  0  0
 52 57  1  0  0  0
 53 54  1  0  0  0
 54 55  1  0  0  0
 55 56  1  0  0  0
 56 57  1  0  0  0
 60 61  1  0  0  0
 60 62  1  0  0  0
M  END
