1TPS
                    3D
 Structure written by MMmdl.
 72 74  0  0  1  0            999 V2000
   24.3270    6.1570   30.7320 C   0  0  3  0  0  0
   23.4840    7.4050   30.5390 C   0  0  1  0  0  0
   24.3920    8.6190   30.3360 C   0  0  0  0  0  0
   24.9590    5.9770   31.7720 O   0  0  0  0  0  0
   22.7010    7.2020   29.3670 O   0  0  0  0  0  0
   25.2710    8.2920   29.2130 O   0  0  0  0  0  0
   26.4760    9.2450   28.8840 S   0  0  0  0  0  0
   25.8690   10.5700   28.5560 O   0  0  0  0  0  0
   27.3810    9.3390   30.0600 O   0  0  0  0  0  0
   27.2430    8.6810   27.7130 O   0  0  0  0  0  0
   24.3620    5.3090   29.7150 N   0  0  0  0  0  0
   25.0950    4.0480   29.7760 C   0  0  2  0  0  0
   26.1320    3.9880   28.6540 C   0  0  0  0  0  0
   27.2110    5.0660   28.7160 C   0  0  0  0  0  0
   28.1740    4.7360   29.8360 C   0  0  0  0  0  0
   27.9420    5.1880   27.3860 C   0  0  0  0  0  0
   24.1200    2.8970   29.6150 C   0  0  3  0  0  0
   23.2980    2.9100   28.6980 O   0  0  0  0  0  0
   24.2220    1.8980   30.4860 N   0  0  0  0  0  0
   23.3770    0.7190   30.3720 C   0  0  2  0  0  0
   21.9300    1.1170   30.6610 C   0  0  0  0  0  0
   21.6650    2.1150   31.3460 O   0  0  0  0  0  0
   23.8080   -0.4110   31.3370 C   0  0  2  0  0  0
   24.0010    0.1170   32.6640 O   0  0  0  0  0  0
   25.1070   -1.0790   30.8680 C   0  0  0  0  0  0
   20.9850    0.3800   30.0940 N   0  0  0  0  0  0
   19.6070    0.8360   30.1490 C   0  0  2  0  0  0
   18.7640   -0.0100   31.1020 C   0  0  0  0  0  0
   17.5880   -0.2740   30.8580 O   0  0  0  0  0  0
   19.0220    0.8990   28.7360 C   0  0  0  0  0  0
   19.5990    2.0650   27.9660 C   0  0  0  0  0  0
   19.2920    2.0710   26.4780 C   0  0  0  0  0  0
   19.7210    3.3560   25.9240 N   0  0  0  0  0  0
   19.4860    3.7790   24.6820 C   0  0  0  0  0  0
   18.8130    3.0220   23.8230 N   0  0  0  0  0  0
   19.8790    4.9940   24.3190 N   0  3  0  0  0  0
   19.3800   -0.4500   32.1950 N   0  0  0  0  0  0
   18.6200   -0.9990   33.3170 C   0  0  2  0  0  0
   18.4760    0.0690   34.3900 C   0  0  0  0  0  0
   18.3720    1.2570   34.0680 O   0  0  0  0  0  0
   19.2820   -2.2590   33.8680 C   0  0  0  0  0  0
   18.7160   -2.6380   35.2110 C   0  0  0  0  0  0
   18.9750   -1.5760   36.2820 C   0  0  1  0  0  0
   20.3930   -1.4680   36.4560 O   0  5  0  0  0  0
   18.4460   -0.3350   35.6820 N   0  0  0  0  0  0
   18.2040    0.7150   36.6950 C   0  0  2  0  0  0
   19.2380    0.7730   37.8350 C   0  0  0  0  0  0
   19.0310    0.1500   38.8790 O   0  0  0  0  0  0
   16.8210    0.3710   37.2680 C   0  0  0  0  0  0
   15.5360    0.3760   36.4360 C   0  0  0  0  0  0
   14.3640    0.1840   37.3900 C   0  0  0  0  0  0
   15.3790    1.6710   35.6820 C   0  0  0  0  0  0
   20.3270    1.5240   37.6610 N   0  0  0  0  0  0
   20.5560    2.3260   36.4620 C   0  0  2  0  0  0
   21.9350    2.0720   35.8740 C   0  0  3  0  0  0
   22.6540    3.0140   35.5330 O   0  0  0  0  0  0
   20.4040    3.8160   36.7810 C   0  0  0  0  0  0
   18.9780    4.2270   37.0370 C   0  0  1  0  0  0
   18.2150    4.7890   36.0210 C   0  0  0  0  0  0
   18.3760    4.0160   38.2820 C   0  0  0  0  0  0
   16.8880    5.1360   36.2250 C   0  0  0  0  0  0
   17.0400    4.3600   38.5000 C   0  0  0  0  0  0
   14.9940    5.3040   37.6460 O   0  0  0  0  0  0
   16.3030    4.9200   37.4620 C   0  0  3  0  0  0
   21.3470    1.5860   38.7070 C   0  0  0  0  0  0
   22.3140    0.8040   35.7780 N   0  0  0  0  0  0
   23.4920    0.4240   35.0090 C   0  0  2  0  0  0
   23.0880    0.0260   33.5880 C   0  0  0  0  0  0
   21.9420   -0.3600   33.3400 O   0  0  0  0  0  0
   24.2690   -0.7360   35.6870 C   0  0  0  0  0  0
   24.4890   -0.4150   37.1520 C   0  0  0  0  0  0
   23.5300   -2.0490   35.5410 C   0  0  0  0  0  0
  1  2  1  0  0  0
  1  4  1  0  0  0
  1 11  1  0  0  0
  2  3  1  0  0  0
  2  5  1  0  0  0
  3  6  1  0  0  0
  6  7  1  0  0  0
  7  8  1  0  0  0
  7  9  1  0  0  0
  7 10  1  0  0  0
 11 12  1  0  0  0
 12 13  1  0  0  0
 12 17  1  0  0  0
 13 14  1  0  0  0
 14 15  1  0  0  0
 14 16  1  0  0  0
 17 18  1  0  0  0
 17 19  1  0  0  0
 19 20  1  0  0  0
 20 21  1  0  0  0
 20 23  1  0  0  0
 21 22  2  0  0  0
 21 26  1  0  0  0
 23 24  1  0  0  0
 23 25  1  0  0  0
 24 68  1  0  0  0
 26 27  1  0  0  0
 27 28  1  0  0  0
 27 30  1  0  0  0
 28 29  2  0  0  0
 28 37  1  0  0  0
 30 31  1  0  0  0
 31 32  1  0  0  0
 32 33  1  0  0  0
 33 34  1  0  0  0
 34 35  1  0  0  0
 34 36  2  0  0  0
 37 38  1  0  0  0
 38 39  1  0  0  0
 38 41  1  0  0  0
 39 40  2  0  0  0
 39 45  1  0  0  0
 41 42  1  0  0  0
 42 43  1  0  0  0
 43 44  1  0  0  0
 43 45  1  0  0  0
 45 46  1  0  0  0
 46 47  1  0  0  0
 46 49  1  0  0  0
 47 48  2  0  0  0
 47 53  1  0  0  0
 49 50  1  0  0  0
 50 51  1  0  0  0
 50 52  1  0  0  0
 53 54  1  0  0  0
 53 65  1  0  0  0
 54 55  1  0  0  0
 54 57  1  0  0  0
 55 56  1  0  0  0
 55 66  1  0  0  0
 57 58  1  0  0  0
 58 59  1  0  0  0
 58 60  1  0  0  0
 59 61  1  0  0  0
 60 62  1  0  0  0
 61 64  1  0  0  0
 62 64  1  0  0  0
 63 64  1  0  0  0
 66 67  1  0  0  0
 67 68  1  0  0  0
 67 70  1  0  0  0
 68 69  2  0  0  0
 70 71  1  0  0  0
 70 72  1  0  0  0
M  CHG  2  36   1  44  -1
M  END
