3K5C
                    3D
 Structure written by MMmdl.
 42 46  0  0  1  0            999 V2000
   30.3240    6.1340   15.4260 N   0  0  0  0  0  0
   31.5350    6.2000   14.6000 C   0  0  1  0  0  0
   32.5990    7.0850   15.3410 C   0  0  0  0  0  0
   31.9990    8.4280   15.7910 C   0  0  3  0  0  0
   31.6290    8.6180   17.1450 C   0  0  0  0  0  0
   31.0670    9.8490   17.5730 C   0  0  3  0  0  0
   30.8750   10.8930   16.6320 C   0  0  0  0  0  0
   31.2430   10.7040   15.2840 C   0  0  0  0  0  0
   31.8050    9.4800   14.8580 C   0  0  0  0  0  0
   30.6920   10.0740   18.8970 O   0  0  0  0  0  0
   31.0670    9.2520   20.0160 C   0  0  0  0  0  0
   29.9070    9.1350   21.0350 C   0  0  0  0  0  0
   28.5720    8.6240   20.4400 C   0  0  0  0  0  0
   28.5740    7.0780   20.3360 C   0  0  0  0  0  0
   27.3260    6.6510   19.7040 N   0  0  0  0  0  0
   27.1260    6.5070   18.3630 C   0  0  3  0  0  0
   28.1760    6.5270   17.4020 C   0  0  0  0  0  0
   27.9010    6.3650   16.0240 C   0  0  3  0  0  0
   26.5620    6.1840   15.5900 C   0  0  0  0  0  0
   25.5060    6.1630   16.5320 C   0  0  3  0  0  0
   25.7970    6.3240   17.9110 C   0  0  0  0  0  0
   24.0580    5.9660   16.0590 C   0  0  0  0  0  0
   23.8000    4.5450   16.0490 O   0  0  0  0  0  0
   22.8490    4.1140   17.0520 C   0  0  0  0  0  0
   29.0430    6.3860   15.0350 C   0  0  3  0  0  0
   28.7720    6.6410   13.8680 O   0  0  0  0  0  0
   32.0520    4.7610   14.3420 C   0  0  2  0  0  0
   33.1810    4.7900   13.4590 O   0  0  0  0  0  0
   30.9820    3.8940   13.6320 C   0  0  0  0  0  0
   31.5390    2.6060   13.1720 N   0  0  0  0  0  0
   30.7230    2.0080   12.1030 C   0  0  0  0  0  0
   30.8500    0.4730   12.0100 C   0  0  0  0  0  0
   29.5460    1.1030   12.5430 C   0  0  0  0  0  0
   30.6640    2.7160   10.7430 C   0  0  3  0  0  0
   31.8650    2.9700   10.0440 C   0  0  0  0  0  0
   31.8490    3.6230    8.7830 C   0  0  3  0  0  0
   30.6010    4.0190    8.2390 C   0  0  0  0  0  0
   29.3930    3.7720    8.9320 C   0  0  0  0  0  0
   29.4240    3.1210   10.1850 C   0  0  0  0  0  0
   33.1790    3.8790    8.0490 C   0  0  0  0  0  0
   33.7770    5.2540    8.4540 C   0  0  0  0  0  0
   34.2290    2.7360    8.1420 C   0  0  0  0  0  0
  1  2  1  0  0  0
  1 25  1  0  0  0
  2  3  1  0  0  0
  2 27  1  0  0  0
  3  4  1  0  0  0
  4  5  1  0  0  0
  4  9  1  0  0  0
  5  6  1  0  0  0
  6  7  1  0  0  0
  6 10  1  0  0  0
  7  8  1  0  0  0
  8  9  1  0  0  0
 10 11  1  0  0  0
 11 12  1  0  0  0
 12 13  1  0  0  0
 13 14  1  0  0  0
 14 15  1  0  0  0
 15 16  1  0  0  0
 16 17  1  0  0  0
 16 21  1  0  0  0
 17 18  1  0  0  0
 18 19  1  0  0  0
 18 25  1  0  0  0
 19 20  1  0  0  0
 20 21  1  0  0  0
 20 22  1  0  0  0
 22 23  1  0  0  0
 23 24  1  0  0  0
 25 26  1  0  0  0
 27 28  1  0  0  0
 27 29  1  0  0  0
 29 30  1  0  0  0
 30 31  1  0  0  0
 31 32  1  0  0  0
 31 33  1  0  0  0
 31 34  1  0  0  0
 32 33  1  0  0  0
 34 35  1  0  0  0
 34 39  1  0  0  0
 35 36  1  0  0  0
 36 37  1  0  0  0
 36 40  1  0  0  0
 37 38  1  0  0  0
 38 39  1  0  0  0
 40 41  1  0  0  0
 40 42  1  0  0  0
M  END
