2DG4
                    3D
 Structure written by MMmdl.
 65 68  0  0  1  0            999 V2000
    4.4140    8.0710   11.8570 C   0  0  3  0  0  0
    3.8670    9.1100   12.7070 O   0  0  0  0  0  0
    5.1770    8.3370   10.9380 O   0  0  0  0  0  0
    4.0210    6.6510   12.1640 C   0  0  2  0  0  0
    3.5490    5.9180   10.9010 C   0  0  0  0  0  0
    2.1230    6.2650   10.4830 C   0  0  0  0  0  0
    1.1790    6.0840   11.6620 C   0  0  0  0  0  0
    1.6330    6.9670   12.8200 C   0  0  0  0  0  0
    2.9930    6.5710   13.2260 N   0  0  0  0  0  0
    3.3720    6.1860   14.4550 C   0  0  3  0  0  0
    4.5350    5.9400   14.7430 O   0  0  0  0  0  0
    2.3430    6.0470   15.4910 C   0  0  3  0  0  0
    1.7270    4.9960   15.5630 O   0  0  0  0  0  0
    2.0090    7.1790   16.4420 C   0  0  1  0  0  0
    1.1980    8.0720   15.6720 O   0  0  0  0  0  0
    1.2580    6.6720   17.5530 O   0  0  0  0  0  0
    3.2580    7.9040   16.9740 C   0  0  1  0  0  0
    2.8970    9.2260   17.6530 C   0  0  0  0  0  0
    1.9890   10.0830   16.7730 C   0  0  0  0  0  0
    0.7740    9.2900   16.2930 C   0  0  1  0  0  0
    0.0140   10.0670   15.2220 C   0  0  0  0  0  0
   -0.8770   11.1940   15.7480 C   0  0  2  0  0  0
   -1.8850   10.6670   16.6150 O   0  0  0  0  0  0
   -1.4740   11.9190   14.5660 C   0  0  3  0  0  0
   -0.9830   13.1360   14.2540 C   0  0  0  0  0  0
   -1.4460   13.9450   13.1240 C   0  0  0  0  0  0
   -0.9350   15.1630   12.9450 C   0  0  0  0  0  0
   -1.3410   15.9970   11.8160 C   0  0  0  0  0  0
   -0.5510   17.0100   11.4600 C   0  0  0  0  0  0
   -0.8850   17.9030   10.2830 C   0  0  2  0  0  0
    0.2900   17.9420    9.3020 C   0  0  0  0  0  0
    0.9220   16.5710    9.0470 C   0  0  2  0  0  0
    2.3950   16.7260    8.7620 C   0  0  3  0  0  0
    2.7900   16.8640    7.6140 O   0  0  0  0  0  0
    3.3870   16.7290    9.9010 C   0  0  2  0  0  0
    4.5080   17.5540    9.5810 O   0  0  0  0  0  0
    3.9170   15.3270   10.2090 C   0  0  2  0  0  0
    4.2270   14.6530    8.9840 O   0  0  0  0  0  0
    2.9500   14.5150   11.0320 C   0  0  3  0  0  0
    2.2970   13.4860   10.4550 C   0  0  0  0  0  0
    1.3200   12.5940   11.1890 C   0  0  2  0  0  0
    2.0220   11.3110   11.5510 C   0  0  3  0  0  0
    1.8140   10.2860   10.9190 O   0  0  0  0  0  0
    2.9930   11.3110   12.7150 C   0  0  0  0  0  0
    4.2270   10.4580   12.4180 C   0  0  1  0  0  0
    5.4660   10.8240   13.2520 C   0  0  1  0  0  0
    6.1080   12.1680   12.8910 C   0  0  0  0  0  0
    6.5740   12.3240   11.4410 C   0  0  1  0  0  0
    7.2060   13.7110   11.3040 C   0  0  0  0  0  0
    7.7920   13.9780    9.9160 C   0  0  1  0  0  0
    8.5120   15.2120    9.9460 O   0  0  0  0  0  0
    8.7360   12.8610    9.4680 C   0  0  2  0  0  0
    9.1160   13.0780    8.1040 O   0  0  0  0  0  0
    8.1020   11.4790    9.6190 C   0  0  0  0  0  0
    7.5940   11.2510   11.0440 C   0  0  0  0  0  0
    4.0960    7.0440   17.9200 C   0  0  0  0  0  0
   -2.5810   11.2870   13.7630 C   0  0  0  0  0  0
   -1.2340   19.3130   10.7470 C   0  0  0  0  0  0
    0.2110   15.8200    7.9210 C   0  0  0  0  0  0
    2.7480   14.8630   12.4840 C   0  0  0  0  0  0
    0.0980   12.3420   10.3070 C   0  0  0  0  0  0
    5.1890   10.7790   14.7560 C   0  0  0  0  0  0
   -2.3340   11.6320   17.5650 C   0  0  0  0  0  0
    4.3940   18.8620   10.1400 C   0  0  0  0  0  0
    7.9830   16.1840    9.0430 C   0  0  0  0  0  0
  1  2  1  0  0  0
  1  3  1  0  0  0
  1  4  1  0  0  0
  2 45  1  0  0  0
  4  5  1  0  0  0
  4  9  1  0  0  0
  5  6  1  0  0  0
  6  7  1  0  0  0
  7  8  1  0  0  0
  8  9  1  0  0  0
  9 10  1  0  0  0
 10 11  1  0  0  0
 10 12  1  0  0  0
 12 13  1  0  0  0
 12 14  1  0  0  0
 14 15  1  0  0  0
 14 16  1  0  0  0
 14 17  1  0  0  0
 15 20  1  0  0  0
 17 18  1  0  0  0
 17 56  1  0  0  0
 18 19  1  0  0  0
 19 20  1  0  0  0
 20 21  1  0  0  0
 21 22  1  0  0  0
 22 23  1  0  0  0
 22 24  1  0  0  0
 23 63  1  0  0  0
 24 25  1  0  0  0
 24 57  1  0  0  0
 25 26  1  0  0  0
 26 27  1  0  0  0
 27 28  1  0  0  0
 28 29  1  0  0  0
 29 30  1  0  0  0
 30 31  1  0  0  0
 30 58  1  0  0  0
 31 32  1  0  0  0
 32 33  1  0  0  0
 32 59  1  0  0  0
 33 34  1  0  0  0
 33 35  1  0  0  0
 35 36  1  0  0  0
 35 37  1  0  0  0
 36 64  1  0  0  0
 37 38  1  0  0  0
 37 39  1  0  0  0
 39 40  1  0  0  0
 39 60  1  0  0  0
 40 41  1  0  0  0
 41 42  1  0  0  0
 41 61  1  0  0  0
 42 43  1  0  0  0
 42 44  1  0  0  0
 44 45  1  0  0  0
 45 46  1  0  0  0
 46 47  1  0  0  0
 46 62  1  0  0  0
 47 48  1  0  0  0
 48 49  1  0  0  0
 48 55  1  0  0  0
 49 50  1  0  0  0
 50 51  1  0  0  0
 50 52  1  0  0  0
 51 65  1  0  0  0
 52 53  1  0  0  0
 52 54  1  0  0  0
 54 55  1  0  0  0
M  END
