1NT1
                    3D
 Structure written by MMmdl.
 35 38  0  0  1  0            999 V2000
   13.3050  -11.3460   21.9390 C   0  0  2  0  0  0
   12.6100  -12.4750   22.3290 C   0  0  2  0  0  0
   11.6610  -12.4160   23.3870 C   0  0  0  0  0  0
   11.4900  -11.2300   24.1020 C   0  0  0  0  0  0
   12.2810  -10.1200   23.7820 C   0  0  3  0  0  0
   13.1730  -10.1610   22.6800 C   0  0  0  0  0  0
   14.1440  -11.3850   20.6840 C   0  0  0  0  0  0
   15.5830  -11.5230   20.9480 N   0  0  0  0  0  0
   16.1920  -12.7050   20.6640 C   0  0  1  0  0  0
   17.6880  -12.7240   20.8980 C   0  0  2  0  0  0
   15.6200  -13.7450   20.3220 O   0  0  0  0  0  0
   12.9140  -13.6870   21.7050 O   0  0  0  0  0  0
   18.4400  -12.8770   19.5630 C   0  0  0  0  0  0
   19.7640  -13.5550   19.9390 C   0  0  0  0  0  0
   19.2630  -14.5920   20.9510 C   0  0  0  0  0  0
   18.1110  -13.9590   21.5710 N   0  0  0  0  0  0
   17.4450  -14.3920   22.6690 C   0  0  2  0  0  0
   17.9410  -15.7110   23.2370 C   0  0  2  0  0  0
   16.8250  -16.6570   23.2880 N   0  0  0  0  0  0
   16.6220  -17.3810   22.1570 C   0  0  2  0  0  0
   17.4440  -17.4820   21.2250 O   0  0  0  0  0  0
   15.2330  -17.9950   22.0630 C   0  0  0  0  0  0
   14.4690  -17.3110   20.9130 C   0  0  0  0  0  0
   13.9290  -15.9920   21.3100 N   0  0  0  0  0  0
   12.7000  -16.0430   21.8690 C   0  0  3  0  0  0
   12.0520  -17.0770   22.0300 O   0  0  0  0  0  0
   12.1630  -14.7150   22.3090 C   0  0  0  0  0  0
   16.4310  -13.8520   23.1320 O   0  0  0  0  0  0
   18.5290  -15.4530   24.6390 C   0  0  0  0  0  0
   18.7960  -16.7530   25.4060 C   0  0  0  0  0  0
   19.4010  -16.4530   26.7880 C   0  0  0  0  0  0
   20.6980  -15.6420   26.6280 C   0  0  0  0  0  0
   20.4210  -14.3300   25.8830 C   0  0  0  0  0  0
   19.8080  -14.6210   24.5140 C   0  0  0  0  0  0
   12.1860   -8.7050   24.7850 Cl  0  0  0  0  0  0
  1  2  1  0  0  0
  1  6  1  0  0  0
  1  7  1  0  0  0
  2  3  1  0  0  0
  2 12  1  0  0  0
  3  4  1  0  0  0
  4  5  1  0  0  0
  5  6  1  0  0  0
  5 35  1  0  0  0
  7  8  1  0  0  0
  8  9  1  0  0  0
  9 10  1  0  0  0
  9 11  1  0  0  0
 10 13  1  0  0  0
 10 16  1  0  0  0
 12 27  1  0  0  0
 13 14  1  0  0  0
 14 15  1  0  0  0
 15 16  1  0  0  0
 16 17  1  0  0  0
 17 18  1  0  0  0
 17 28  1  0  0  0
 18 19  1  0  0  0
 18 29  1  0  0  0
 19 20  1  0  0  0
 20 21  1  0  0  0
 20 22  1  0  0  0
 22 23  1  0  0  0
 23 24  1  0  0  0
 24 25  1  0  0  0
 25 26  1  0  0  0
 25 27  1  0  0  0
 29 30  1  0  0  0
 29 34  1  0  0  0
 30 31  1  0  0  0
 31 32  1  0  0  0
 32 33  1  0  0  0
 33 34  1  0  0  0
M  END
