2F3F
                    3D
 Structure written by MMmdl.
 34 35  0  0  1  0            999 V2000
   29.8450    9.0120   18.6550 C   0  0  1  0  0  0
   29.3620    7.7690   19.4580 C   0  0  1  0  0  0
   28.4360   10.0720   18.0740 S   0  0  0  0  0  0
   28.7000    8.1460   20.7160 N   0  0  0  0  0  0
   29.6930    8.8200   21.5910 C   0  0  0  0  0  0
   30.1850   10.1310   20.9180 C   0  0  0  0  0  0
   30.8370    9.8110   19.5370 C   0  0  0  0  0  0
   28.6160    6.7610   18.6510 C   0  0  3  0  0  0
   29.0010    6.7150   17.3600 N   0  0  0  0  0  0
   28.4610    5.7200   16.4560 C   0  0  2  0  0  0
   29.4150    5.7380   15.3050 C   0  0  3  0  0  0
   30.7250    5.5380   15.6250 N   0  0  0  0  0  0
   31.7330    5.5930   14.5890 C   0  0  1  0  0  0
   32.9930    6.3810   15.0680 C   0  0  0  0  0  0
   32.4950    7.8800   15.9940 S   0  0  0  0  0  0
   31.8310    8.9710   14.6630 C   0  0  0  0  0  0
   31.2130   10.0830   15.4810 C   0  0  0  0  0  0
   29.9120   10.0580   15.7800 C   0  0  0  0  0  0
   29.2940   11.0740   16.7000 C   0  0  0  0  0  0
   32.1960    4.2100   14.0730 C   0  0  1  0  0  0
   32.9280    3.5000   15.0810 O   0  0  0  0  0  0
   31.0430    3.3210   13.5870 C   0  0  0  0  0  0
   31.6770    2.3250   12.5970 C   0  0  1  0  0  0
   30.7900    1.0840   12.4130 C   0  0  0  0  0  0
   31.8080    2.9790   11.2440 C   0  0  3  0  0  0
   30.8950    3.6790   10.8270 O   0  0  0  0  0  0
   32.9440    2.7540   10.5720 N   0  0  0  0  0  0
   33.1350    3.3500    9.2610 C   0  0  0  0  0  0
   34.3780    2.7180    8.6150 C   0  0  0  0  0  0
   34.4340    2.9740    7.0740 C   0  0  0  0  0  0
   34.7510    4.4300    6.7610 C   0  0  0  0  0  0
   29.0190    5.9260   14.1770 O   0  0  0  0  0  0
   26.9820    5.9990   16.1140 C   0  0  0  0  0  0
   27.7480    6.0530   19.1530 O   0  0  0  0  0  0
  1  2  1  0  0  0
  1  3  1  0  0  0
  1  7  1  0  0  0
  2  4  1  0  0  0
  2  8  1  0  0  0
  3 19  1  0  0  0
  4  5  1  0  0  0
  5  6  1  0  0  0
  6  7  1  0  0  0
  8  9  1  0  0  0
  8 34  1  0  0  0
  9 10  1  0  0  0
 10 11  1  0  0  0
 10 33  1  0  0  0
 11 12  1  0  0  0
 11 32  1  0  0  0
 12 13  1  0  0  0
 13 14  1  0  0  0
 13 20  1  0  0  0
 14 15  1  0  0  0
 15 16  1  0  0  0
 16 17  1  0  0  0
 17 18  1  0  0  0
 18 19  1  0  0  0
 20 21  1  0  0  0
 20 22  1  0  0  0
 22 23  1  0  0  0
 23 24  1  0  0  0
 23 25  1  0  0  0
 25 26  1  0  0  0
 25 27  1  0  0  0
 27 28  1  0  0  0
 28 29  1  0  0  0
 29 30  1  0  0  0
 30 31  1  0  0  0
M  END
