1PFE
                    3D
 Structure written by MMmdl.
 90 98  0  0  1  0            999 V2000
  -10.6330   12.9290   15.2490 N   0  0  0  0  0  0
   -9.7620   11.8970   15.7310 C   0  0  0  0  0  0
   -9.2130   10.9660   14.6710 C   0  0  0  0  0  0
   -8.1860   10.3370   14.8580 O   0  0  0  0  0  0
   -8.6260   12.4990   16.5900 C   0  0  0  0  0  0
   -7.7600   13.3170   15.7740 O   0  0  0  0  0  0
   -9.9470   10.8560   13.5410 N   0  0  0  0  0  0
   -9.4980   10.0280   12.4610 C   0  0  0  0  0  0
   -8.3750   10.7360   11.7000 C   0  0  0  0  0  0
   -8.2800   11.9540   11.7760 O   0  0  0  0  0  0
  -10.6070    9.7200   11.4840 C   0  0  0  0  0  0
   -7.5110    9.9950   10.9650 N   0  0  0  0  0  0
   -6.3740   10.6630   10.3100 C   0  0  0  0  0  0
   -5.0170   10.4160   11.0880 C   0  0  0  0  0  0
   -5.3830   10.3660   12.8670 S   0  0  0  0  0  0
   -7.4540    8.5130   10.9750 C   0  0  0  0  0  0
   -6.2710   10.2360    8.8520 C   0  0  0  0  0  0
   -5.3000    9.5450    8.4920 O   0  0  0  0  0  0
   -7.5110    9.9950   10.9650 N   0  0  0  0  0  0
   -6.3740   10.6630   10.3100 C   0  0  0  0  0  0
   -5.0990   10.3030   10.9930 C   0  0  0  0  0  0
   -4.5280   11.1540   12.4710 S   0  0  0  0  0  0
   -7.4540    8.5130   10.9750 C   0  0  0  0  0  0
   -6.2710   10.2360    8.8520 C   0  0  0  0  0  0
   -5.3000    9.5450    8.4920 O   0  0  0  0  0  0
   -7.2150   10.6330    7.9910 N   0  0  0  0  0  0
   -8.3730   11.4780    8.3640 C   0  0  0  0  0  0
   -7.1180   10.1900    6.5690 C   0  0  0  0  0  0
   -8.2550    9.2500    6.1710 C   0  0  0  0  0  0
   -7.9590    8.5790    4.8400 C   0  0  0  0  0  0
   -8.5060    8.1960    7.2450 C   0  0  0  0  0  0
   -7.0810   11.3990    5.6500 C   0  0  0  0  0  0
   -7.8250   11.5910    4.7130 O   0  0  0  0  0  0
   -7.7770   14.6110    5.6640 N   0  0  0  0  0  0
   -6.3290   14.6480    5.6480 C   0  0  0  0  0  0
   -5.6920   15.0540    6.9800 C   0  0  0  0  0  0
   -4.5300   14.7440    7.2230 O   0  0  0  0  0  0
   -5.7730   13.3220    5.1040 C   0  0  0  0  0  0
   -6.1360   12.2550    6.0140 O   0  0  0  0  0  0
   -6.4090   15.7990    7.7950 N   0  0  0  0  0  0
   -5.9230   16.1680    9.1160 C   0  0  0  0  0  0
   -5.9930   14.9400   10.0580 C   0  0  0  0  0  0
   -6.8360   14.0900    9.8480 O   0  0  0  0  0  0
   -6.7150   17.3050    9.7350 C   0  0  0  0  0  0
   -5.1570   14.8650   11.1200 N   0  0  0  0  0  0
   -5.2600   13.7400   12.0100 C   0  0  0  0  0  0
   -4.0280   12.9370   11.9390 C   0  0  0  0  0  0
   -3.9080   11.7390   10.5940 S   0  0  0  0  0  0
   -4.0230   15.8300   11.3780 C   0  0  0  0  0  0
   -5.4210   14.2180   13.4730 C   0  0  0  0  0  0
   -4.4860   14.0550   14.2750 O   0  0  0  0  0  0
   -5.1570   14.8650   11.1200 N   0  0  0  0  0  0
   -5.2600   13.7400   12.0100 C   0  0  0  0  0  0
   -4.0330   12.7890   11.8610 C   0  0  0  0  0  0
   -3.4890   12.8100   10.1100 S   0  0  0  0  0  0
   -4.0230   15.8300   11.3780 C   0  0  0  0  0  0
   -5.4210   14.2180   13.4730 C   0  0  0  0  0  0
   -4.4860   14.0550   14.2750 O   0  0  0  0  0  0
   -6.5400   14.8300   13.8240 N   0  0  0  0  0  0
   -7.6740   15.0470   12.9310 C   0  0  0  0  0  0
   -6.6760   15.3410   15.2110 C   0  0  0  0  0  0
   -6.8220   16.8610   15.2740 C   0  0  0  0  0  0
   -6.6510   17.3520   16.7060 C   0  0  0  0  0  0
   -5.8040   17.5580   14.4090 C   0  0  0  0  0  0
   -7.8140   14.6330   15.9150 C   0  0  0  0  0  0
   -8.7020   15.1770   16.5360 O   0  0  0  0  0  0
  -11.9300   15.2500   14.8270 N   0  0  0  0  0  0
  -12.6630   14.1820   15.0700 C   0  0  0  0  0  0
  -14.0830   14.2310   15.0570 C   0  0  0  0  0  0
  -14.7600   15.3360   14.7960 N   0  0  0  0  0  0
  -14.6360   17.6900   14.3310 C   0  0  0  0  0  0
  -13.9230   18.8380   14.1020 C   0  0  0  0  0  0
  -12.5140   18.7960   14.1250 C   0  0  0  0  0  0
  -11.8650   17.6110   14.3160 C   0  0  0  0  0  0
  -12.6090   16.4150   14.5920 C   0  0  0  0  0  0
  -14.0170   16.4590   14.5820 C   0  0  0  0  0  0
  -11.9680   12.9290   15.4140 C   0  0  0  0  0  0
  -12.5720   11.9350   15.8200 O   0  0  0  0  0  0
  -10.2990   13.9560    5.2710 N   0  0  0  0  0  0
   -9.9850   15.2060    5.0150 C   0  0  0  0  0  0
  -10.9270   16.1580    4.6140 C   0  0  0  0  0  0
  -12.2150   15.8640    4.5070 N   0  0  0  0  0  0
  -13.8920   14.1070    4.5770 C   0  0  0  0  0  0
  -14.2470   12.8050    4.7520 C   0  0  0  0  0  0
  -13.2640   11.8420    5.1480 C   0  0  0  0  0  0
  -11.9940   12.2540    5.3460 C   0  0  0  0  0  0
  -11.5850   13.5850    5.1170 C   0  0  0  0  0  0
  -12.5750   14.5550    4.7370 C   0  0  0  0  0  0
   -8.5450   15.5930    5.1080 C   0  0  0  0  0  0
   -8.1140   16.7050    4.7880 O   0  0  0  0  0  0
  1  2  1  0  0  0
  1 77  1  0  0  0
  2  3  1  0  0  0
  2  5  1  0  0  0
  3  4  1  0  0  0
  3  7  1  0  0  0
  5  6  1  0  0  0
  6 65  1  0  0  0
  7  8  1  0  0  0
  8  9  1  0  0  0
  8 11  1  0  0  0
  9 10  2  0  0  0
  9 12  1  0  0  0
  9 19  1  0  0  0
 12 13  1  0  0  0
 12 16  1  0  0  0
 13 14  1  0  0  0
 13 17  1  0  0  0
 14 15  1  0  0  0
 14 48  1  0  0  0
 17 18  1  0  0  0
 17 26  1  0  0  0
 19 20  1  0  0  0
 19 23  1  0  0  0
 20 21  1  0  0  0
 20 24  1  0  0  0
 21 22  1  0  0  0
 22 54  1  0  0  0
 24 25  1  0  0  0
 24 26  1  0  0  0
 26 27  1  0  0  0
 26 28  1  0  0  0
 28 29  1  0  0  0
 28 32  1  0  0  0
 29 30  1  0  0  0
 29 31  1  0  0  0
 32 33  1  0  0  0
 32 39  1  0  0  0
 34 35  1  0  0  0
 34 89  1  0  0  0
 35 36  1  0  0  0
 35 38  1  0  0  0
 36 37  1  0  0  0
 36 40  1  0  0  0
 38 39  1  0  0  0
 40 41  1  0  0  0
 41 42  1  0  0  0
 41 44  1  0  0  0
 42 43  2  0  0  0
 42 45  1  0  0  0
 42 52  1  0  0  0
 45 46  1  0  0  0
 45 49  1  0  0  0
 46 47  1  0  0  0
 46 50  1  0  0  0
 47 48  1  0  0  0
 50 51  1  0  0  0
 50 59  1  0  0  0
 52 53  1  0  0  0
 52 56  1  0  0  0
 53 54  1  0  0  0
 53 57  1  0  0  0
 54 55  1  0  0  0
 57 58  1  0  0  0
 57 59  1  0  0  0
 59 60  1  0  0  0
 59 61  1  0  0  0
 61 62  1  0  0  0
 61 65  1  0  0  0
 62 63  1  0  0  0
 62 64  1  0  0  0
 65 66  1  0  0  0
 67 68  1  0  0  0
 67 75  1  0  0  0
 68 69  1  0  0  0
 68 77  1  0  0  0
 69 70  1  0  0  0
 70 76  1  0  0  0
 71 72  1  0  0  0
 71 76  1  0  0  0
 72 73  1  0  0  0
 73 74  1  0  0  0
 74 75  1  0  0  0
 75 76  1  0  0  0
 77 78  1  0  0  0
 79 80  1  0  0  0
 79 87  1  0  0  0
 80 81  1  0  0  0
 80 89  1  0  0  0
 81 82  1  0  0  0
 82 88  1  0  0  0
 83 84  1  0  0  0
 83 88  1  0  0  0
 84 85  1  0  0  0
 85 86  1  0  0  0
 86 87  1  0  0  0
 87 88  1  0  0  0
 89 90  1  0  0  0
M  END
